
 ****************************
 *** Specfem3D MPI Mesher ***
 ****************************

 Version: 8.1.1


 Planet: Earth


 There are            4  MPI processes
 Processes are numbered from 0 to            3

 There are           48  elements along xi in each chunk
 There are           48  elements along eta in each chunk

 There are            2  slices along xi in each chunk
 There are            2  slices along eta in each chunk
 There is a total of            4  slices in each chunk
 There are            1  chunks in the global mesh
 There is a total of            4  slices in the global mesh

 NGLLX =            5
 NGLLY =            5
 NGLLZ =            5

 Shape functions defined by NGNOD =           27  control nodes
 Surface shape functions defined by NGNOD2D =            9  control nodes

 model: SEMUCB_A3d
   incorporating the oceans using equivalent load
   incorporating ellipticity
   incorporating surface topography
   incorporating self-gravitation (Cowling approximation)
   incorporating rotation
   incorporating attenuation using            3  standard linear solids

   incorporating 3-D lateral variations in the mantle
   no heterogeneities in the mantle
   incorporating crustal variations
   using one layer only in crust
   incorporating transverse isotropy
   no inner-core anisotropy
   no general mantle anisotropy


 Reference radius of the globe used is    6371.0000000000000       km

 Central cube is at a radius of    935.00000000000000       km
 creating global slice addressing


 incorporating topography
   topo file            : DATA/SEMUCB_A3d/ETOPO5_1x1_filtre.dat
   resolution in minutes:    60.0000000

   topography/bathymetry: min/max =        -7170        5568

   Elapsed time for reading in seconds =    9.1380000000000003E-003


   VTK topo output: topo resolution in minutes =    60.0000000
                    samples per degree         =    1.00000000
                    resolution distance        =    111.194923     (km)
                    full globe NLAT =          180
                               NLON =          360
                               total number of points NLAT x NLON =        64800

   elevations written to file: ./DATABASES_MPI/mesh_topo_bathy.vtk
   min/max =   -6.10502243     /   5.35811520     (km)

 reference model: 1D Berkeley
   model file             = DATA/SEMUCB_A3d/model1D.dat

   title                  = model_ref
   total number of layers =          757

   1D Moho layer index    =          713
            radius        =    6341.00000     (km)
            depth         =    30.0000000     (km)

 broadcast model: SEMUCB Berkeley
   number of parameters: NBPARAM =            2

 incorporating crustal model: Berkeley


   VTK moho output: resolution =            1 deg
                    NLAT =          180
                    NLON =          360

   moho depths written to file: ./DATABASES_MPI/mesh_moho_depth.vtk
   min/max =    30.0000000     /   60.0000038     (km)

   sediment depths written to file: ./DATABASES_MPI/mesh_sediment_depth.vtk
   min/max =    0.00000000     /   0.00000000     (km)

 attenuation model:
   1D reference model
   model: Berkeley attenuation

 additional mesh optimizations

 moho:
   default  2-layer crust
   incorporating element stretching for 3-D moho surface

 internal topography 410/660:
   no element stretching for 3-D internal surfaces


 Radial Meshing parameters:
   NCHUNKS                =            1

   CENTER LAT/LON:             40.0000000     /   25.0000000
   GAMMA_ROTATION_AZIMUTH:     0.00000000

   CHUNK WIDTH XI/ETA:         20.0000000     /   20.0000000
   NEX XI/ETA:                        48 /          48

   NER_CRUST:                          2
   NER_80_MOHO:                        1
   NER_220_80:                         2
   NER_400_220:                        2
   NER_600_400:                        2
   NER_670_600:                        1
   NER_771_670:                        2
   NER_TOPDDOUBLEPRIME_771:           21
   NER_CMB_TOPDDOUBLEPRIME:            2
   NER_OUTER_CORE:                    21
   NER_TOP_CENTRAL_CUBE_ICB:           3
   SUPPRESS_CRUSTAL_MESH:    F

   R_CENTRAL_CUBE =    935.000000      km

 Mesh resolution:
   DT =   0.11500000000000000
   Minimum period =    20.5916538      (s)

   MIN_ATTENUATION_PERIOD =    20.5916538
   MAX_ATTENUATION_PERIOD =    1157.95374



 *******************************************
 creating mesh in region            1
 this region is the crust and mantle
 *******************************************


 first pass

   ...allocating arrays

   ...setting up layers

   ...creating mesh elements
   creating layer            1 out of           10
     number of regular elements  =            0
     number of doubling elements =         1008
   setting tiso flags in mantle model
     using fully transverse isotopic mantle
     10.0%    current clock (NOT elapsed) time is: 12h 32min 50sec
   creating layer            2 out of           10
     number of regular elements  =          288
     20.0%    current clock (NOT elapsed) time is: 12h 32min 50sec
   creating layer            3 out of           10
     number of regular elements  =           72
     30.0%    current clock (NOT elapsed) time is: 12h 32min 50sec
   creating layer            4 out of           10
     number of regular elements  =          360
     number of doubling elements =          288
     40.0%    current clock (NOT elapsed) time is: 12h 32min 50sec
   creating layer            5 out of           10
     number of regular elements  =         1296
     50.0%    current clock (NOT elapsed) time is: 12h 32min 50sec
   creating layer            6 out of           10
     number of regular elements  =          288
     60.0%    current clock (NOT elapsed) time is: 12h 32min 50sec
   creating layer            7 out of           10
     number of regular elements  =          144
     70.0%    current clock (NOT elapsed) time is: 12h 32min 50sec
   creating layer            8 out of           10
     number of regular elements  =          288
     80.0%    current clock (NOT elapsed) time is: 12h 32min 50sec
   creating layer            9 out of           10
     number of regular elements  =          288
     90.0%    current clock (NOT elapsed) time is: 12h 32min 50sec
   creating layer           10 out of           10
     number of regular elements  =         1152
    100.0%    current clock (NOT elapsed) time is: 12h 32min 50sec
   layers done

   number of elements (per slice)        =         5472
   total number of elements (all slices) =        21888


   ...creating global addressing
     total number of points            :       684000
     array memory required per process :    15.6555176     MB
     getting global points             : npointot =       684000  nspec =         5472
     creating indirect addressing
     ibool ok

   ...creating MPI buffers

 second pass

   ...allocating arrays

   ...setting up layers

   ...creating mesh elements
   creating layer            1 out of           10
     number of regular elements  =            0
     number of doubling elements =         1008
     10.0%    current clock (NOT elapsed) time is: 12h 33min 09sec
   creating layer            2 out of           10
     number of regular elements  =          288
     20.0%    current clock (NOT elapsed) time is: 12h 33min 14sec
   creating layer            3 out of           10
     number of regular elements  =           72
     30.0%    current clock (NOT elapsed) time is: 12h 33min 15sec
   creating layer            4 out of           10
     number of regular elements  =          360
     number of doubling elements =          288
     40.0%    current clock (NOT elapsed) time is: 12h 33min 26sec
   creating layer            5 out of           10
     number of regular elements  =         1296
     50.0%    current clock (NOT elapsed) time is: 12h 33min 49sec
   creating layer            6 out of           10
     number of regular elements  =          288
     60.0%    current clock (NOT elapsed) time is: 12h 33min 54sec
   creating layer            7 out of           10
     number of regular elements  =          144
     70.0%    current clock (NOT elapsed) time is: 12h 33min 57sec
   creating layer            8 out of           10
     number of regular elements  =          288
     80.0%    current clock (NOT elapsed) time is: 12h 34min 02sec
   creating layer            9 out of           10
     number of regular elements  =          288
     90.0%    current clock (NOT elapsed) time is: 12h 34min 07sec
   creating layer           10 out of           10
     number of regular elements  =         1152
    100.0%    current clock (NOT elapsed) time is: 12h 34min 53sec
   layers done

   number of elements (per slice)        =         5472
   total number of elements (all slices) =        21888


   ...fills global mesh points

   ...checking mesh resolution and time step

 ----------------------------------
   Verification of mesh parameters:
 ----------------------------------
   Region is crust/mantle

   Min Vs =    3.09848571      (km/s)
   Max Vp =    13.9197865      (km/s)

   Max element edge size =    140.770157      (km)
   Min element edge size =    12.6542788      (km)
   Max/min ratio =    11.1243134

   Max Jacobian eigenvalue ratio =   0.982963681
   Min Jacobian eigenvalue ratio =   0.192368150

   Minimum period resolved =    24.3780594      (s)
   Minimum period resolved (empirical) =    20.5916538      (s)
   Maximum suggested time step =   0.194999993      (s)

   for DT :   0.115000002      (s)
   Max stability for wave velocities =   0.320042521
 ----------------------------------

   saving vtk mesh files for resolution res_minimum_period...

   ...precomputing Jacobian

   ...creating chunk buffers

 ----- creating chunk buffers -----

 There are            2  slices along xi in each chunk
 There are            2  slices along eta in each chunk
 There is a total of            4  slices in each chunk
 There are            1  chunks
 There is a total of            4  slices in all the chunks

 There is a total of            2  messages to assemble faces between chunks


 only one chunk, no need to create chunk buffers


   ...preparing MPI interfaces

 crust/mantle region:
   #max of points in MPI buffers along xi npoin2D_xi =         6537
   #max of array elements transferred npoin2D_xi*NDIM =        19611

   #max of points in MPI buffers along eta npoin2D_eta =         6537
   #max of array elements transferred npoin2D_eta*NDIM =        19611

 crust mantle MPI:
   maximum interfaces:           3
   MPI addressing maximum interfaces:           3
   MPI addressing : all interfaces okay

   total MPI interface points :        52860
   unique MPI interface points:        51732
   maximum valence            :            3
   total unique MPI interface points:       51732


   ...element inner/outer separation

   for overlapping of communications with calculations:
   percentage of edge elements in crust/mantle    14.7478065     %
   percentage of volume elements in crust/mantle    85.2521973     %


   ...element mesh permutation

   ...creating absorbing boundary arrays

   ...creating mass matrix
      updates mass matrix with Stacey boundary corrections
      updates mass matrix with ocean load
        using minimum ocean thickness:    50.000000000000000      (m)

   ...saving binary files

   ...saving mesh files

 calculated region volume:    3.36253829E-02
                 top area:   0.120571889
              bottom area:    3.59788574E-02

 *******************************************
 creating mesh in region            2
 this region is the outer core
 *******************************************


 first pass

   ...allocating arrays

   ...setting up layers

   ...creating mesh elements
   creating layer            1 out of            2
     number of regular elements  =           90
     number of doubling elements =           72
     50.0%    current clock (NOT elapsed) time is: 12h 34min 56sec
   creating layer            2 out of            2
     number of regular elements  =          324
    100.0%    current clock (NOT elapsed) time is: 12h 34min 56sec
   layers done

   number of elements (per slice)        =          486
   total number of elements (all slices) =         1944


   ...creating global addressing
     total number of points            :        60750
     array memory required per process :    1.39045715     MB
     getting global points             : npointot =        60750  nspec =          486
     creating indirect addressing
     ibool ok

   ...creating MPI buffers

 second pass

   ...allocating arrays

   ...setting up layers

   ...creating mesh elements
   creating layer            1 out of            2
     number of regular elements  =           90
     number of doubling elements =           72
     50.0%    current clock (NOT elapsed) time is: 12h 34min 56sec
   creating layer            2 out of            2
     number of regular elements  =          324
    100.0%    current clock (NOT elapsed) time is: 12h 34min 56sec
   layers done

   number of elements (per slice)        =          486
   total number of elements (all slices) =         1944


   ...fills global mesh points

   ...checking mesh resolution and time step

 ----------------------------------
   Verification of mesh parameters:
 ----------------------------------
   Region is outer core

   Min Vp =    8.06482601      (km/s)
   Max Vp =    10.3556843      (km/s)

   Max element edge size =    161.360535      (km)
   Min element edge size =    53.7388153      (km)
   Max/min ratio =    3.00268126

   Max Jacobian eigenvalue ratio =   0.997647285
   Min Jacobian eigenvalue ratio =   0.222442403

   Minimum period resolved =    15.1957264      (s)
   Minimum period resolved (empirical) =    20.5916538      (s)
   Maximum suggested time step =   0.529999971      (s)

   for DT :   0.115000002      (s)
   Max stability for wave velocities =   0.118746400
 ----------------------------------

   saving vtk mesh files for resolution res_minimum_period...

   ...precomputing Jacobian

   ...creating chunk buffers

 ----- creating chunk buffers -----

 There are            2  slices along xi in each chunk
 There are            2  slices along eta in each chunk
 There is a total of            4  slices in each chunk
 There are            1  chunks
 There is a total of            4  slices in all the chunks

 There is a total of            2  messages to assemble faces between chunks


 only one chunk, no need to create chunk buffers


   ...preparing MPI interfaces

 outer core region:
   #max of points in MPI buffers along xi npoin2D_xi =         1693
   #max of array elements transferred npoin2D_xi*NDIM =         5079

   #max of points in MPI buffers along eta npoin2D_eta =         1741
   #max of array elements transferred npoin2D_eta*NDIM =         5223

 outer core MPI:
   maximum interfaces:           3
   MPI addressing maximum interfaces:           3
   MPI addressing : all interfaces okay

   total MPI interface points :        14108
   unique MPI interface points:        13364
   maximum valence            :            3
   total assembled MPI interface points:       13364


   ...element inner/outer separation

   for overlapping of communications with calculations:
   percentage of edge elements in outer core    36.6255150     %
   percentage of volume elements in outer core    63.3744850     %


   ...element mesh permutation

   ...creating absorbing boundary arrays

   ...creating mass matrix
      updates mass matrix with Stacey boundary corrections

   ...saving binary files

   ...saving mesh files

 calculated region volume:    6.26634993E-03
                 top area:    3.59788574E-02
              bottom area:    4.43285750E-03

 *******************************************
 creating mesh in region            3
 this region is the inner core
 *******************************************


 first pass

   ...allocating arrays

   ...setting up layers

   ...creating mesh elements
   creating layer            1 out of            1
     number of regular elements  =           27
    100.0%    current clock (NOT elapsed) time is: 12h 34min 56sec
   layers done

   number of elements (per slice)        =           27
   total number of elements (all slices) =          108


   ...creating global addressing
     total number of points            :         3375
     array memory required per process :    7.72476196E-02 MB
     getting global points             : npointot =         3375  nspec =           27
     creating indirect addressing
     ibool ok

   ...creating MPI buffers

 second pass

   ...allocating arrays

   ...setting up layers

   ...creating mesh elements
   creating layer            1 out of            1
     number of regular elements  =           27
    100.0%    current clock (NOT elapsed) time is: 12h 34min 56sec
   layers done

   number of elements (per slice)        =           27
   total number of elements (all slices) =          108


   ...fills global mesh points

   ...checking mesh resolution and time step

 ----------------------------------
   Verification of mesh parameters:
 ----------------------------------
   Region is inner core

   Min Vs =    3.50430799      (km/s)
   Max Vp =    11.1251354      (km/s)

   Max element edge size =    95.5216599      (km)
   Min element edge size =    53.5321083      (km)
   Max/min ratio =    1.78438067

   Max Jacobian eigenvalue ratio =   0.744332135
   Min Jacobian eigenvalue ratio =   0.553061068

   Minimum period resolved =    23.3216648      (s)
   Minimum period resolved (empirical) =    20.5916538      (s)
   Maximum suggested time step =   0.455000013      (s)

   for DT :   0.115000002      (s)
   Max stability for wave velocities =   0.138408870
 ----------------------------------

   saving vtk mesh files for resolution res_minimum_period...

   ...precomputing Jacobian

   ...creating chunk buffers

 ----- creating chunk buffers -----

 There are            2  slices along xi in each chunk
 There are            2  slices along eta in each chunk
 There is a total of            4  slices in each chunk
 There are            1  chunks
 There is a total of            4  slices in all the chunks

 There is a total of            2  messages to assemble faces between chunks


 only one chunk, no need to create chunk buffers


   ...preparing MPI interfaces

 inner core region:
   #max of points in MPI buffers along xi npoin2D_xi =          169
   #max of array elements transferred npoin2D_xi*NDIM =          507

   #max of points in MPI buffers along eta npoin2D_eta =          169
   #max of array elements transferred npoin2D_eta*NDIM =          507

 inner core MPI:
   maximum interfaces:           3
   MPI addressing maximum interfaces:           3
   MPI addressing : all interfaces okay

   total MPI interface points :         1404
   unique MPI interface points:         1300
   maximum valence            :            3
   total assembled MPI interface points:        1300


   ...element inner/outer separation

   for overlapping of communications with calculations:
   percentage of edge elements in inner core    55.5555573     %
   percentage of volume elements in inner core    44.4444427     %


   ...element mesh permutation

   ...creating absorbing boundary arrays

   ...creating mass matrix

   ...saving binary files

   ...saving mesh files

 calculated region volume:    1.56214461E-04
                 top area:    4.43285750E-03
              bottom area:    2.59728939E-03

 all mesh regions created - done

 *******************************************

 finalizing simulation:

 calculated volume:    4.0047946048177886E-002

 Repartition of elements in regions:
 ----------------------------------

 number of elements in each slice      :         5985
 total number of elements in all slices:        23940

  - crust and mantle       :    91.4285736      %
  - outer core             :    8.12030029      %
  - inner core             :   0.451127827      %

 for some mesh statistics, see comments in file OUTPUT_FILES/values_from_mesher.h

 Load balancing = 100 % by definition


 the time step of the solver will be DT =   0.115000002

 using single precision for the calculations

 smallest and largest possible floating-point numbers are:    1.17549435E-38   3.40282347E+38


 Elapsed time for mesh generation and buffer creation in seconds =    134.351959
 Elapsed time for mesh generation and buffer creation in hh:mm:ss =    0 h 02 m 14 s

 End of mesh generation

